%chk=aiida.chk
# opt freq hf/3-21g output=wfx

Title Card Required

0 1
 C                 -0.10355030    2.04124515   -0.02672136
 H                  0.25310413    1.03243515   -0.02672136
 H                  0.25312254    2.54564334    0.84693014
 H                  0.25312254    2.54564334   -0.90037287
 H                 -1.17355030    2.04125834   -0.02672136

aiida.wfx

aiida.wfx
